40

C         12.93733        2.44533        7.79226
C         12.94228        2.44095        9.20827
C         14.17680        2.39935        9.92223
C         14.17999        2.39506       11.33307
C         12.94872        2.43230       12.05285
C         12.95017        2.42807       13.46886
C         10.45444        2.53323        4.94914
C         11.69841        2.49130        5.66238
C         11.70162        2.48698        7.08105
C         10.46915        2.52427        7.79809
C         10.47060        2.52000        9.21410
C         11.70806        2.47830        9.92586
C         11.71126        2.47399       11.34109
C         10.47704        2.51135       12.05868
C         10.48199        2.50701       13.47469
C         11.71770        2.46537       14.18590
C          9.24590        2.56975        5.67882
C          9.22386        2.56627        7.07975
C          8.01040        2.60288        7.82267
C          7.99435        2.59924        9.20697
C          9.23933        2.55725        9.93389
C          9.24252        2.55296       11.34472
C          8.00084        2.59051       12.07750
C          8.02316        2.58573       13.46171
C          9.23997        2.54462       14.19890
C          6.76703        2.63623        9.96626
C          6.77011        2.63210       11.32401
H          8.30498        2.60149        5.13389
H          7.06936        2.63462        7.27752
H          7.08459        2.61415       14.01130
H          5.82798        2.66785        9.41893
H          5.83354        2.66038       11.87577
H         10.44287        2.53667        3.91721
H         12.59030        2.46430        5.14389
H         15.07517        2.36491       11.84568
H         15.06965        2.37233        9.40540
H         13.82932        2.41834        7.27395
H         13.84450        2.39794       13.98296
H         11.72004        2.46223       15.21789
H          9.23123        2.54186       15.23086
